test/IEEE13bus_wihtout_solve_original/IEEE13Nodeckt_Losses.txt

LOSSES REPORT

Power Delivery Element Loss Report

Element                  kW Losses    % of Power   kvar Losses

"Transformer.sub"    0.03229,     0.00     0.262468
"Transformer.reg1"   0.12209,     0.01     0.123858
"Transformer.reg2"   0.06534,     0.01     0.0670769
"Transformer.reg3"   0.13509,     0.01     0.136853
"Transformer.xfm1"   5.55266,     1.37     10.0962
"Capacitor.cap1"     0.00000,      0.0     -593.489
"Capacitor.cap2"     0.00000,      0.0     -92.4561
"Line.650632"       60.73552,     1.70     196.009
"Line.632670"       12.99023,     0.48     41.4932
"Line.670671"       22.72805,     0.92     72.3319
"Line.671680"        0.00000,      0.0     -0.00416913
"Line.632633"        0.82446,     0.20     1.05611
"Line.632645"        2.75850,     0.68     2.41585
"Line.645646"        0.52746,     0.22     0.419725
"Line.692675"        4.16282,     0.49     2.41926
"Line.671684"        0.57947,     0.20     0.470669
"Line.684611"        0.38239,     0.23     0.387339
"Line.684652"        0.79981,     0.65     0.230874
"Line.671692"        0.00001,      0.0     0

LINE LOSSES=                       106.5 kW
TRANSFORMER LOSSES=                  5.9 kW

TOTAL LOSSES=                      112.4 kW

TOTAL LOAD POWER =                3454.7 kW
Percent Losses for Circuit =      3.25 %
